Version 4
SHEET 1 880 680
WIRE -272 64 -400 64
WIRE -112 64 -192 64
WIRE -48 64 -112 64
WIRE 80 64 16 64
WIRE 160 64 80 64
WIRE 320 64 240 64
WIRE 464 64 320 64
WIRE -112 112 -112 64
WIRE -400 160 -400 64
WIRE 320 160 320 64
WIRE 464 160 464 64
WIRE 80 176 80 64
WIRE -160 192 -224 192
WIRE -224 224 -224 192
WIRE -400 336 -400 240
WIRE -320 336 -400 336
WIRE -224 336 -224 304
WIRE -224 336 -320 336
WIRE -112 336 -112 208
WIRE -112 336 -224 336
WIRE 80 336 80 240
WIRE 80 336 -112 336
WIRE 320 336 320 224
WIRE 320 336 80 336
WIRE 464 336 464 240
WIRE 464 336 320 336
WIRE -320 368 -320 336
FLAG -320 368 0
SYMBOL voltage -400 144 R0
WINDOW 123 0 0 Left 0
WINDOW 39 0 0 Left 0
SYMATTR InstName V1
SYMATTR Value 28
SYMBOL ind -288 80 R270
WINDOW 0 32 56 VTop 2
WINDOW 3 5 56 VBottom 2
SYMATTR InstName L1
SYMATTR Value 10m
SYMBOL cap 304 160 R0
SYMATTR InstName C2
SYMATTR Value 7.262µ
SYMBOL res 448 144 R0
SYMATTR InstName R1
SYMATTR Value 15
SYMBOL voltage -224 208 R0
WINDOW 123 0 0 Left 0
WINDOW 39 0 0 Left 0
SYMATTR InstName V2
SYMATTR Value PULSE(0 5 0 0 0 0.00000554285 0.0000095238)
SYMBOL schottky 64 176 R0
SYMATTR InstName D1
SYMATTR Value UPSC600
SYMATTR Description Diode
SYMATTR Type diode
SYMBOL nmos -160 112 R0
SYMATTR InstName M1
SYMATTR Value Si7540DP_N
SYMBOL cap 16 48 R90
WINDOW 0 0 32 VBottom 2
WINDOW 3 32 32 VTop 2
SYMATTR InstName C1
SYMATTR Value 10µ
SYMBOL ind 144 80 R270
WINDOW 0 32 56 VTop 2
WINDOW 3 5 56 VBottom 2
SYMATTR InstName L2
SYMATTR Value 1m
TEXT -432 400 Left 2 !.tran 50m
